$
$   soln1.dat
$
SOL 101
CEND
TITLE = PIN JOINT STRUCTURE
SUBCASE 1
   LOAD = 1
   DISPLACEMENT = ALL
   SPCFORCES = ALL
   FORCE = ALL
   STRESS = ALL
BEGIN BULK
$
GRID     1               0.      0.      0.             123456
GRID     2               144.    72.     0.             3456
GRID     3               192.    0.      0.             3456
GRID     4               288.    144.    0.             3456
GRID     5               384.    0.      0.             3456
GRID     6               432.    72.     0.             3456
GRID     7               576.    0.      0.             23456
$
CROD     1       1       1       2
CROD     2       1       2       4
CROD     3       1       4       6
CROD     4       1       6       7
CROD     5       1       2       3
CROD     6       1       3       4
CROD     7       1       4       5
CROD     8       1       5       6
CROD     9       1       1       3
CROD     10      1       3       5
CROD     11      1       5       7
$
PROD     1       1       5.25
MAT1     1       1.76+6                                                 +      A
+      A 1900.   1900.
$
FORCE    1       2       0       1500.   0.     -1.      0.
FORCE    1       4       0       1500.   0.     -1.      0.
FORCE    1       6       0       1500.   0.     -1.      0.
FORCE    2       2       0       1300.  -1.      0.      0.
FORCE    2       4       0       1300.  -1.      0.      0.
FORCE    2       6       0       1300.  -1.      0.      0.
$
PARAM,POST,0
ENDDATA
